<?xml version="1.0" encoding="UTF-8"?>

<!-- generated on 2023-04-24 21:18:49 by Eclipse SUMO polyconvert Version 1.12.0
<configuration xmlns:xsi="http://www.w3.org/2001/XMLSchema-instance" xsi:noNamespaceSchemaLocation="http://sumo.dlr.de/xsd/polyconvertConfiguration.xsd">

    <input>
        <net-file value="place.net.xml"/>
        <osm-files value="place.osm"/>
        <type-file value="osmPolyconvert.typ.xml"/>
    </input>

    <output>
        <output-file value="place.poly.xml"/>
    </output>

    <processing>
        <poi-layer-offset value="5"/>
    </processing>

</configuration>
-->

<additional xmlns:xsi="http://www.w3.org/2001/XMLSchema-instance" xsi:noNamespaceSchemaLocation="http://sumo.dlr.de/xsd/additional_file.xsd">
    <location netOffset="-714887.64,-1216578.86" convBoundary="-165.22,-336.79,2607.19,1560.60" origBoundary="76.965178,10.995947,76.990557,11.013035" projParameter="+proj=utm +zone=43 +ellps=WGS84 +datum=WGS84 +units=m +no_defs"/>

    <poly id="133585670" type="college" color="237,199,199" fill="1" layer="-2.00" shape="1021.259999,601.159789 1158.442470,615.882100 1165.471739,537.807787 1032.211745,516.650156 1021.259999,601.159789"/>
    <poly id="155608165" type="building" color="255,230,230" fill="1" layer="-1.00" shape="667.006981,384.769119 754.008745,395.884849 788.766583,348.019754 677.149863,335.027259 667.006981,384.769119"/>
    <poly id="155608165#1" type="tourism" color="207,245,201" fill="1" layer="-2.00" shape="667.006981,384.769119 754.008745,395.884849 788.766583,348.019754 677.149863,335.027259 667.006981,384.769119"/>
    <poly id="593038870" type="tourism" color="207,245,201" fill="1" layer="-2.00" shape="743.575557,235.437542 761.193944,254.051824 751.818766,230.247576 746.670932,231.817955 743.575557,235.437542"/>
    <poly id="606809836" type="building" color="255,230,230" fill="1" layer="-1.00" shape="367.642361,506.726164 375.722898,461.363017 391.852927,463.604205 384.167165,508.770799 367.642361,506.726164"/>
    <poly id="66102263" type="leisure" color="207,245,201" fill="1" layer="-2.00" shape="496.480644,492.138542 475.670984,744.662124 566.096159,743.663195 610.239916,548.259616 496.480644,492.138542"/>
    <poly id="66293772" type="school" color="237,199,199" fill="1" layer="-2.00" shape="551.655955,915.065818 695.197885,933.213680 753.333339,940.555182 913.388569,960.793094 876.260577,792.580097 821.397689,767.934266 821.019990,763.871418 813.714627,686.355605 813.172887,680.643193 717.593140,627.694394 702.426262,651.868296 696.914080,660.649775 676.907924,659.433974 581.035222,772.416232 551.655955,915.065818"/>
    <poly id="66293773" type="kindergarten" color="237,199,199" fill="1" layer="-2.00" shape="644.322639,529.874613 639.256278,499.106496 612.075824,440.235194 620.175922,435.188094 670.218978,474.804073 675.242813,478.786826 714.237598,509.656355 766.118092,555.723654 814.773368,603.528964 844.157268,648.065464 840.020051,653.868787 693.753322,561.188898 644.322639,529.874613"/>
    <poly id="854412340" type="building" color="255,230,230" fill="1" layer="-1.00" shape="181.235984,514.055003 182.429279,500.443517 252.119943,499.351849 253.114279,516.064444 181.235984,514.055003"/>
    <poly id="854412342" type="building" color="255,230,230" fill="1" layer="-1.00" shape="243.890441,492.482656 243.155200,477.929169 254.934956,476.811594 255.101859,493.020897 243.890441,492.482656"/>
    <poly id="854412343" type="building" color="255,230,230" fill="1" layer="-1.00" shape="261.477928,469.176375 264.831298,449.549386 274.923921,450.677724 271.826700,471.246803 261.477928,469.176375"/>
    <poly id="854412344" type="building" color="255,230,230" fill="1" layer="-1.00" shape="276.791329,484.257014 275.382463,474.080298 305.934830,472.278299 306.121169,485.522682 276.791329,484.257014"/>
    <poly id="854412345" type="building" color="255,230,230" fill="1" layer="-1.00" shape="317.729446,470.563408 312.400228,443.157017 334.696442,443.546767 334.258770,471.922098 317.729446,470.563408"/>
    <poly id="854412346" type="building" color="255,230,230" fill="1" layer="-1.00" shape="336.414038,486.617680 341.947626,444.590093 373.205776,453.502377 363.688479,491.277505 336.414038,486.617680"/>
    <poly id="854412347" type="building" color="255,230,230" fill="1" layer="-1.00" shape="342.559070,527.947481 339.448773,502.215190 361.902480,498.589902 363.194132,511.631338 385.782188,514.180455 383.750943,533.871444 342.559070,527.947481"/>
    <poly id="854412348" type="building" color="255,230,230" fill="1" layer="-1.00" shape="331.354053,553.076867 332.342461,534.053915 345.128119,531.228117 382.876952,537.129477 380.342082,555.279314 331.354053,553.076867"/>
    <poly id="854413884" type="building" color="255,230,230" fill="1" layer="-1.00" shape="269.577110,510.895131 268.870250,500.346859 284.921819,501.215592 284.319475,513.049717 269.577110,510.895131"/>
    <poly id="854413885" type="building" color="255,230,230" fill="1" layer="-1.00" shape="292.611376,512.075221 292.690740,499.983200 310.030340,501.125926 307.888561,512.684421 292.611376,512.075221"/>
    <poly id="854413886" type="building" color="255,230,230" fill="1" layer="-1.00" shape="256.394270,547.595167 259.846897,534.496367 275.097891,537.428742 271.397275,550.005924 256.394270,547.595167"/>
    <poly id="854413887" type="building" color="255,230,230" fill="1" layer="-1.00" shape="275.264013,552.089135 278.204594,538.732512 292.175981,540.107590 288.978078,552.699134 275.264013,552.089135"/>
    <poly id="854413888" type="building" color="255,230,230" fill="1" layer="-1.00" shape="292.105038,550.916287 295.021191,539.617338 307.187414,541.235038 303.736438,554.079384 292.105038,550.916287"/>
    <poly id="854413889" type="building" color="255,230,230" fill="1" layer="-1.00" shape="313.556753,556.721670 315.728963,540.527715 327.103958,544.452527 325.717124,557.564886 313.556753,556.721670"/>
    <poly id="854413891" type="building" color="255,230,230" fill="1" layer="-1.00" shape="212.551697,539.175721 212.637783,526.054832 251.745439,524.773596 250.312213,546.625910 212.551697,539.175721"/>
    <poly id="854413895" type="building" color="255,230,230" fill="1" layer="-1.00" shape="223.744088,669.213521 224.083897,652.410109 244.653604,654.359528 244.520448,656.327979 243.637087,669.344067 223.744088,669.213521"/>
    <poly id="854413896" type="building" color="255,230,230" fill="1" layer="-1.00" shape="246.836664,669.818673 244.520448,656.327979 264.989274,656.993370 266.249684,673.132407 246.836664,669.818673"/>
    <poly id="854413897" type="building" color="255,230,230" fill="1" layer="-1.00" shape="246.498337,651.417647 252.878262,585.343303 269.097774,587.264182 266.370510,654.723329 246.498337,651.417647"/>
    <poly id="854413898" type="building" color="255,230,230" fill="1" layer="-1.00" shape="225.502372,644.464673 244.711759,645.497948 246.397149,561.901209 231.319349,560.895052 225.502372,644.464673"/>
    <poly id="854413899" type="building" color="255,230,230" fill="1" layer="-1.00" shape="254.898859,580.588142 257.669648,558.125042 268.961007,559.803369 265.992159,582.464315 254.898859,580.588142"/>
    <poly id="854413900" type="building" color="255,230,230" fill="1" layer="-1.00" shape="271.834615,583.299240 272.509878,573.678318 295.360430,576.195912 295.993447,583.004197 296.043854,588.646977 271.834615,583.299240"/>
    <poly id="854413901" type="building" color="255,230,230" fill="1" layer="-1.00" shape="272.956483,567.253283 274.018628,558.641691 302.943147,561.697015 301.893667,570.043164 272.956483,567.253283"/>
    <poly id="854413902" type="building" color="255,230,230" fill="1" layer="-1.00" shape="332.347210,594.937092 334.713562,572.482398 353.471988,575.614858 350.713044,596.263604 332.347210,594.937092"/>
    <poly id="854413903" type="building" color="255,230,230" fill="1" layer="-1.00" shape="349.881403,631.363040 351.092476,600.071984 374.508083,601.431665 370.667120,633.712247 349.881403,631.363040"/>
    <poly id="854413904" type="building" color="255,230,230" fill="1" layer="-1.00" shape="353.958930,594.680689 360.505657,581.480508 376.240393,583.984631 373.524875,598.017611 353.958930,594.680689"/>
    <poly id="854413905" type="building" color="255,230,230" fill="1" layer="-1.00" shape="379.980199,630.365803 381.494304,614.521561 400.473532,615.652987 398.133110,632.487529 379.980199,630.365803"/>
    <poly id="854413906" type="building" color="255,230,230" fill="1" layer="-1.00" shape="381.309005,611.112746 383.246379,594.065348 402.411828,596.802222 400.686115,613.242511 381.309005,611.112746"/>
    <poly id="854413907" type="building" color="255,230,230" fill="1" layer="-1.00" shape="384.273029,590.863637 387.641475,570.617183 408.207715,574.768338 405.850539,595.818014 384.273029,590.863637"/>
    <poly id="854413908" type="building" color="255,230,230" fill="1" layer="-1.00" shape="389.726776,561.005517 392.283373,539.547796 410.226367,543.681723 406.477641,561.912098 389.726776,561.005517"/>
    <poly id="854413909" type="building" color="255,230,230" fill="1" layer="-1.00" shape="387.641475,570.617183 407.691635,573.459440 407.616674,563.236151 389.726776,561.005517 387.641475,570.617183"/>
    <poly id="854413910" type="building" color="255,230,230" fill="1" layer="-1.00" shape="390.423601,534.789286 392.912469,515.322574 417.649647,518.516453 413.897389,538.948469 390.423601,534.789286"/>
    <poly id="854413911" type="building" color="255,230,230" fill="1" layer="-1.00" shape="393.070036,512.967055 395.126337,496.119584 417.357662,499.728487 415.718515,516.302108 393.070036,512.967055"/>
    <poly id="854413912" type="building" color="255,230,230" fill="1" layer="-1.00" shape="421.048385,503.647124 425.280112,475.119677 442.091914,478.405350 438.591702,507.059302 421.048385,503.647124"/>
    <poly id="854413913" type="building" color="255,230,230" fill="1" layer="-1.00" shape="395.937145,492.496037 419.501459,496.191140 423.451088,474.001302 399.158278,469.715043 395.937145,492.496037"/>
    <poly id="854413914" type="building" color="255,230,230" fill="1" layer="-1.00" shape="450.333131,513.442691 452.711011,487.580467 454.409535,485.268259 473.033871,488.853510 471.922298,494.997590 468.116836,516.867529 450.333131,513.442691"/>
    <poly id="854413915" type="building" color="255,230,230" fill="1" layer="-1.00" shape="441.365663,554.031585 442.444618,537.874702 450.359113,539.442403 448.308231,555.460140 441.365663,554.031585"/>
    <poly id="854413916" type="building" color="255,230,230" fill="1" layer="-1.00" shape="455.726101,547.764319 458.479213,531.341840 459.878537,532.977386 469.459637,532.099912 467.120010,550.472307 455.726101,547.764319"/>
    <poly id="854413917" type="building" color="255,230,230" fill="1" layer="-1.00" shape="616.970029,613.601491 627.222678,555.463049 665.079202,574.907361 657.019419,592.113659 637.133354,582.600944 630.475342,616.035768 616.970029,613.601491"/>
    <poly id="854413918" type="building" color="255,230,230" fill="1" layer="-1.00" shape="649.133026,617.862235 653.132957,596.358675 664.934883,596.856691 661.345802,620.708445 649.133026,617.862235"/>
    <poly id="854413919" type="building" color="255,230,230" fill="1" layer="-1.00" shape="660.298709,648.626210 669.328881,580.256918 692.846009,592.780717 692.806796,598.743767 699.674879,599.862106 701.189205,597.305298 715.732004,604.868903 712.985623,630.219794 702.426262,651.868296 695.642863,657.820184 676.907924,659.433974 662.824926,656.752475 660.298709,648.626210"/>
    <poly id="854429844" type="tourism" color="207,245,201" fill="1" layer="-2.00" shape="375.088085,724.507309 380.404596,645.636401 391.274118,644.966517 421.958170,643.065945 424.841076,640.164081 429.198445,635.778310 464.135919,638.663077 454.838339,751.130247 418.526342,752.838911 417.193439,752.741647 399.136591,744.325321 396.389882,743.134536 375.088085,724.507309"/>
    <poly id="854429910" type="building" color="255,230,230" fill="1" layer="-1.00" shape="779.431648,690.323161 777.739108,676.770110 805.649097,671.200641 811.858958,674.339326 813.714627,686.355605 800.799672,687.233164 801.507114,692.681138 787.259486,695.087780 787.147152,688.902457 779.431648,690.323161"/>
    <poly id="854440595" type="building" color="255,230,230" fill="1" layer="-1.00" shape="312.159038,591.474411 314.893632,581.192125 330.418477,585.697364 329.666793,593.636114 329.046927,598.146005 312.159038,591.474411"/>
    <poly id="854440596" type="building" color="255,230,230" fill="1" layer="-1.00" shape="314.118016,571.130196 316.852610,560.847910 332.377465,565.353148 331.636712,573.291971 331.005916,577.801790 314.118016,571.130196"/>
    <poly id="854835191" type="building" color="255,230,230" fill="1" layer="-1.00" shape="226.242806,363.353982 266.480629,364.779666 260.065000,331.347558 217.019975,339.606267 226.242806,363.353982"/>
    <poly id="854835192" type="building" color="255,230,230" fill="1" layer="-1.00" shape="321.307732,406.683389 324.203402,381.853490 435.464621,397.342837 431.378978,425.262744 419.272518,422.859879 420.929923,408.499104 352.637275,396.400720 349.414324,411.138442 321.307732,406.683389"/>
    <poly id="854835193" type="building" color="255,230,230" fill="1" layer="-1.00" shape="434.991397,437.777309 447.134096,399.709645 459.001478,401.900740 460.683625,423.718212 492.303997,435.730810 486.399525,452.652579 434.991397,437.777309"/>
    <poly id="854835194" type="building" color="255,230,230" fill="1" layer="-1.00" shape="564.644546,465.580062 528.477302,450.196292 533.133687,436.906264 559.954645,437.392277 567.764127,408.368345 588.743302,414.569085 598.701699,429.470877 596.544475,433.384293 590.388597,443.644087 584.440302,467.225873 579.827665,473.855872 564.644546,465.580062"/>
    <poly id="854835195" type="building" color="255,230,230" fill="1" layer="-1.00" shape="556.588782,485.508062 564.618665,469.518549 588.327418,477.850389 580.289526,495.056846 556.588782,485.508062"/>
    <poly id="854835196" type="building" color="255,230,230" fill="1" layer="-1.00" shape="604.404822,489.760964 589.361025,460.288117 594.933620,447.302833 615.112572,483.779531 604.404822,489.760964"/>
    <poly id="854835197" type="building" color="255,230,230" fill="1" layer="-1.00" shape="696.415496,540.329297 655.451073,513.108903 675.242813,478.786826 717.348424,508.670020 696.415496,540.329297"/>
    <poly id="854835198" type="building" color="255,230,230" fill="1" layer="-1.00" shape="661.413311,487.414057 670.218978,474.804073 648.477116,461.583905 641.976390,476.078802 661.413311,487.414057"/>
    <poly id="854835199" type="building" color="255,230,230" fill="1" layer="-1.00" shape="600.356578,503.652421 604.621801,493.335948 616.866808,499.601011 613.178558,488.656950 618.989994,484.236500 624.518621,501.222346 626.033212,513.590394 600.356578,503.652421"/>
    <poly id="855508749" type="forest" color="140,196,107" fill="1" layer="-4.00" shape="403.097825,608.855023 402.429400,612.435250 402.996021,616.034652 404.734866,619.232398 407.320789,621.605935 410.536056,623.021069 414.042703,623.342817 417.458389,622.535478 420.443696,620.685330 422.669480,617.978295 423.915176,614.711641 424.036437,611.227393 423.030937,607.879571 421.005654,605.022916 418.166227,602.968559 414.806467,601.917575 411.143960,602.026285 407.725003,603.331468 404.933026,605.702876 403.097825,608.855023"/>
    <poly id="855508750" type="natural" color="140,196,107" fill="1" layer="-4.00" shape="461.266760,602.864429 460.458909,601.044686 460.329897,599.052384 460.878052,597.141976 462.047342,595.523303 463.694366,594.394567 465.632438,593.887308 467.631585,594.066395 469.451560,594.897060 470.874266,596.300424 471.736913,598.098400 471.954748,599.881077 471.604354,601.637893 470.741474,603.203261 469.432634,604.433790 467.809796,605.208648 466.026493,605.451396 464.246824,605.140987 462.656385,604.311831 461.266760,602.864429"/>
    <poly id="855508751" type="forest" color="140,196,107" fill="1" layer="-4.00" shape="463.672316,587.767304 463.202141,586.126798 463.322635,584.423789 464.021561,582.857344 465.210169,581.626025 466.745420,580.872719 468.451922,580.673720 470.121708,581.071916 471.558398,582.010699 472.587834,583.378289 473.070102,584.841858 473.070930,586.379709 472.591263,587.848021 471.686769,589.092270 470.434688,590.002327 468.977693,590.490619 467.425451,590.502550 465.952845,590.039267 464.679746,589.156877 463.672316,587.767304"/>
    <poly id="855508752" type="forest" color="140,196,107" fill="1" layer="-4.00" shape="396.279267,460.369498 395.748690,462.932776 396.092318,465.534986 397.268320,467.888198 399.158278,469.715043 401.512030,470.825798 404.100694,471.119388 406.651230,470.560827 408.878943,469.225692 410.553498,467.234171 411.487553,464.817369 411.591995,462.229165 410.843147,459.745994 409.326635,457.645009 407.205034,456.137487 404.717720,455.390955 402.104725,455.473370 399.650017,456.419787 397.627655,458.110307 396.279267,460.369498"/>
    <poly id="855508753" type="natural" color="140,196,107" fill="1" layer="-4.00" shape="414.923339,462.616141 413.668857,463.891285 412.893202,465.490418 412.662972,467.259087 413.012194,469.009434 413.898380,470.553099 415.300396,471.779305 417.022879,472.476561 418.880521,472.566206 420.676576,472.046946 422.192150,470.961599 423.262415,469.441847 423.765975,467.663909 423.657875,465.815572 422.936733,464.107037 421.688758,462.726951 420.044022,461.842123 418.286205,461.531861 416.513608,461.807875 414.923339,462.616141"/>
    <poly id="855508761" type="forest" color="140,196,107" fill="1" layer="-4.00" shape="433.832568,564.293415 435.239531,561.437175 435.642799,558.286688 435.007474,555.162570 433.396811,552.419274 430.983879,550.334526 427.964041,549.119820 424.707837,548.943544 421.575749,549.841256 418.918200,551.715684 417.009971,554.336296 416.082343,557.439085 416.225081,560.670603 417.418578,563.687750 419.544926,566.135714 422.354326,567.769455 425.552897,568.398962 428.725653,567.966191 431.587898,566.546717 433.832568,564.293415"/>
    <poly id="855508762" type="forest" color="140,196,107" fill="1" layer="-4.00" shape="451.346833,518.870530 453.198888,516.481886 454.190359,513.645044 454.231912,510.647072 453.321658,507.775611 451.555935,505.341078 448.966371,503.520697 445.911485,502.648732 442.740321,502.838113 439.813870,504.046956 437.449980,506.144585 435.912433,508.911459 435.389222,512.016904 435.926250,515.129312 437.460330,517.883169 439.829471,519.978692 442.761942,521.181761 445.930706,521.357465 448.843611,520.546824 451.346833,518.870530"/>
    <poly id="855508763" type="natural" color="140,196,107" fill="1" layer="-4.00" shape="430.121521,510.212126 428.938039,508.998418 427.456389,508.247424 425.818299,508.015393 424.187580,508.325529 422.750336,509.134799 421.649243,510.355631 421.005260,511.878183 420.885205,513.514813 421.301024,515.110707 422.210231,516.477504 423.526183,517.492937 425.085798,518.023171 426.747274,518.023019 428.313791,517.502252 429.632110,516.493056 430.570484,515.083074 430.985730,513.437320 430.821890,511.754571 430.121521,510.212126"/>
    <poly id="855508764" type="forest" color="140,196,107" fill="1" layer="-4.00" shape="475.561366,475.162267 472.102814,475.836558 469.074206,477.620037 466.826622,480.315864 465.613565,483.604860 465.579672,487.100746 466.727485,490.416313 468.928458,493.152424 471.922298,494.997590 475.153013,495.726884 478.445283,495.405538 481.470983,494.064586 483.923046,491.856903 485.537764,488.990965 486.160224,485.753408 485.733448,482.497895 484.288192,479.534410 481.986303,477.184862 479.044934,475.671950 475.561366,475.162267"/>
    <poly id="855508765" type="natural" color="140,196,107" fill="1" layer="-4.00" shape="453.790111,483.051464 453.171123,480.768290 451.839485,478.812344 449.935984,477.383696 447.678136,476.649731 445.294968,476.689397 443.059883,477.482363 441.202855,478.963757 439.932719,480.957933 439.371092,483.255480 439.596154,485.602449 440.576715,487.755234 442.204996,489.480791 444.329283,490.578979 446.687900,490.948506 449.040819,490.521415 451.125277,489.362360 452.711011,487.580467 453.632540,485.406983 453.790111,483.051464"/>
    <poly id="855508766" type="natural" color="140,196,107" fill="1" layer="-4.00" shape="433.871436,593.324647 456.405833,597.378126 463.460043,558.513656 440.936475,554.471312 433.871436,593.324647"/>
    <poly id="855508768" type="forest" color="140,196,107" fill="1" layer="-4.00" shape="457.439922,533.138386 455.072194,532.492207 453.058958,531.129220 451.585156,529.183403 450.846081,526.877313 450.894859,524.443633 451.729599,522.170007 453.283267,520.277267 455.357592,518.996446 457.722167,518.458796 460.147091,518.718124 462.359398,519.728383 464.108200,521.410479 465.230924,523.553135 465.575927,525.945147 465.133949,528.331989 463.939599,530.437298 462.114563,532.040601 459.878537,532.977386 457.439922,533.138386"/>
    <poly id="855520332" type="forest" color="140,196,107" fill="1" layer="-4.00" shape="364.236056,687.560963 360.810136,689.928211 356.791408,691.019250 352.629029,690.682137 348.825496,688.964427 345.838572,686.068272 344.090467,682.616005 343.536298,678.784350 344.228102,674.971941 346.097610,671.587681 348.956903,668.951184 352.508901,667.359216 356.380962,666.964222 360.179378,667.796809 363.511097,669.788012 366.049519,672.736542 367.512565,676.319702 367.760540,680.171474 366.641219,684.169159 364.236056,687.560963"/>
    <poly id="855520333" type="forest" color="140,196,107" fill="1" layer="-4.00" shape="365.703792,645.484550 367.273600,649.455637 367.431373,653.727235 366.147518,657.812348 363.578182,661.236266 360.010021,663.624708 355.849270,664.703751 351.566800,664.343723 347.643177,662.603098 344.666163,659.861899 342.710890,656.330827 341.971778,652.365195 342.500790,648.374698 344.273525,644.746403 347.101699,641.855237 350.688307,639.986906 354.944600,639.339970 359.169662,640.120039 362.894001,642.246583 365.703792,645.484550"/>
    <poly id="855520334" type="forest" color="140,196,107" fill="1" layer="-4.00" shape="369.093506,646.967207 366.739767,645.856452 364.805445,644.128888 363.464625,641.907358 362.825228,639.402779 363.042021,636.350640 364.306447,633.559844 366.441442,631.361137 369.204798,630.018455 372.267590,629.684531 375.257754,630.423301 377.815391,632.110705 379.635543,634.578783 380.512644,637.505341 380.328639,640.557695 379.096857,643.370833 376.994507,645.591881 374.241865,646.967823 371.670644,647.349229 369.093506,646.967207"/>
    <poly id="855520335" type="forest" color="140,196,107" fill="1" layer="-4.00" shape="402.461421,629.196864 399.930078,626.834750 396.747456,625.441959 393.284022,625.197942 389.933192,626.116345 387.089037,628.111249 385.081134,630.930353 384.141054,634.265397 384.391716,637.707832 385.791869,640.881226 388.180175,643.386227 391.274118,644.966517 394.342681,645.418150 397.406417,644.940407 400.180921,643.564610 402.413855,641.432930 403.896308,638.732076 404.495518,635.704576 404.047969,632.282974 402.461421,629.196864"/>
    <poi id="1470383046" type="building" color="255,230,230" layer="4.00" x="343.03" y="240.69"/>
    <poi id="1470427876" type="shop" color="237,199,255" layer="4.00" x="965.16" y="469.31"/>
    <poi id="1470427881" type="shop" color="237,199,255" layer="4.00" x="947.87" y="467.74"/>
    <poi id="1470427900" type="amenity" color="237,199,199" layer="4.00" x="899.82" y="461.60"/>
    <poi id="1470432055" type="amenity" color="237,199,199" layer="4.00" x="505.12" y="295.00"/>
    <poi id="1474490996" type="amenity" color="237,199,199" layer="4.00" x="241.69" y="357.40"/>
    <poi id="1680062373" type="tourism" color="207,245,201" layer="3.00" x="677.15" y="335.03"/>
    <poi id="2206625833" type="amenity" color="237,199,199" layer="4.00" x="990.11" y="499.49"/>
    <poi id="472267840" type="amenity" color="237,199,199" layer="4.00" x="270.56" y="259.62"/>
    <poi id="5752357090" type="shop" color="237,199,255" layer="4.00" x="384.44" y="467.80"/>
    <poi id="6241147194" type="amenity" color="237,199,199" layer="4.00" x="623.38" y="586.87"/>
</additional>
