<?xml version="1.0" encoding="UTF-8"?>

<!-- generated on 2023-04-24 21:07:26 by Eclipse SUMO netconvert Version 1.12.0
<configuration xmlns:xsi="http://www.w3.org/2001/XMLSchema-instance" xsi:noNamespaceSchemaLocation="http://sumo.dlr.de/xsd/netconvertConfiguration.xsd">

    <input>
        <osm-files value="place.osm"/>
    </input>

    <output>
        <output-file value="place.net.xml"/>
    </output>

    <projection>
        <proj.utm value="true"/>
    </projection>

    <report>
        <aggregate-warnings value="5"/>
    </report>

</configuration>
-->

<net version="1.9" junctionCornerDetail="5" limitTurnSpeed="5.50" xmlns:xsi="http://www.w3.org/2001/XMLSchema-instance" xsi:noNamespaceSchemaLocation="http://sumo.dlr.de/xsd/net_file.xsd">

    <location netOffset="-714887.64,-1216578.86" convBoundary="0.00,0.00,2123.90,1560.60" origBoundary="76.966701,10.998978,76.986203,11.013035" projParameter="+proj=utm +zone=43 +ellps=WGS84 +datum=WGS84 +units=m +no_defs"/>

    <type id="highway.bridleway" priority="1" numLanes="1" speed="2.78" allow="pedestrian" oneway="1" width="2.00"/>
    <type id="highway.bus_guideway" priority="1" numLanes="1" speed="27.78" allow="bus" oneway="1"/>
    <type id="highway.cycleway" priority="1" numLanes="1" speed="8.33" allow="bicycle" oneway="0" width="1.00"/>
    <type id="highway.footway" priority="1" numLanes="1" speed="2.78" allow="pedestrian" oneway="1" width="2.00"/>
    <type id="highway.ford" priority="1" numLanes="1" speed="2.78" allow="army" oneway="0"/>
    <type id="highway.living_street" priority="2" numLanes="1" speed="2.78" disallow="tram rail_urban rail rail_electric rail_fast ship" oneway="0"/>
    <type id="highway.motorway" priority="14" numLanes="2" speed="39.44" allow="private emergency authority army vip passenger hov taxi bus coach delivery truck trailer motorcycle evehicle custom1 custom2" oneway="1"/>
    <type id="highway.motorway_link" priority="9" numLanes="1" speed="22.22" allow="private emergency authority army vip passenger hov taxi bus coach delivery truck trailer motorcycle evehicle custom1 custom2" oneway="1"/>
    <type id="highway.path" priority="1" numLanes="1" speed="2.78" allow="pedestrian bicycle" oneway="0" width="2.00"/>
    <type id="highway.pedestrian" priority="1" numLanes="1" speed="2.78" allow="pedestrian" oneway="1" width="2.00"/>
    <type id="highway.primary" priority="12" numLanes="2" speed="27.78" disallow="tram rail_urban rail rail_electric rail_fast ship" oneway="0"/>
    <type id="highway.primary_link" priority="7" numLanes="1" speed="22.22" disallow="tram rail_urban rail rail_electric rail_fast ship" oneway="0"/>
    <type id="highway.raceway" priority="15" numLanes="2" speed="83.33" allow="vip" oneway="0"/>
    <type id="highway.residential" priority="3" numLanes="1" speed="13.89" disallow="tram rail_urban rail rail_electric rail_fast ship" oneway="0"/>
    <type id="highway.secondary" priority="11" numLanes="1" speed="27.78" disallow="tram rail_urban rail rail_electric rail_fast ship" oneway="0"/>
    <type id="highway.secondary_link" priority="6" numLanes="1" speed="22.22" disallow="tram rail_urban rail rail_electric rail_fast ship" oneway="0"/>
    <type id="highway.service" priority="1" numLanes="1" speed="5.56" allow="pedestrian delivery bicycle" oneway="0"/>
    <type id="highway.stairs" priority="1" numLanes="1" speed="1.39" allow="pedestrian" oneway="1" width="2.00"/>
    <type id="highway.step" priority="1" numLanes="1" speed="1.39" allow="pedestrian" oneway="1" width="2.00"/>
    <type id="highway.steps" priority="1" numLanes="1" speed="1.39" allow="pedestrian" oneway="1" width="2.00"/>
    <type id="highway.tertiary" priority="10" numLanes="1" speed="22.22" disallow="tram rail_urban rail rail_electric rail_fast ship" oneway="0"/>
    <type id="highway.tertiary_link" priority="5" numLanes="1" speed="22.22" disallow="tram rail_urban rail rail_electric rail_fast ship" oneway="0"/>
    <type id="highway.track" priority="1" numLanes="1" speed="5.56" allow="pedestrian motorcycle moped bicycle" oneway="0"/>
    <type id="highway.trunk" priority="13" numLanes="2" speed="27.78" disallow="pedestrian bicycle tram rail_urban rail rail_electric rail_fast ship" oneway="0"/>
    <type id="highway.trunk_link" priority="8" numLanes="1" speed="22.22" disallow="pedestrian bicycle tram rail_urban rail rail_electric rail_fast ship" oneway="0"/>
    <type id="highway.unclassified" priority="4" numLanes="1" speed="13.89" disallow="tram rail_urban rail rail_electric rail_fast ship" oneway="0"/>
    <type id="highway.unsurfaced" priority="1" numLanes="1" speed="8.33" disallow="tram rail_urban rail rail_electric rail_fast ship" oneway="0"/>
    <type id="railway.highspeed" priority="21" numLanes="1" speed="69.44" allow="rail_fast" oneway="1"/>
    <type id="railway.light_rail" priority="19" numLanes="1" speed="27.78" allow="rail_urban" oneway="1"/>
    <type id="railway.preserved" priority="16" numLanes="1" speed="27.78" allow="rail" oneway="1"/>
    <type id="railway.rail" priority="20" numLanes="1" speed="44.44" allow="rail" oneway="1"/>
    <type id="railway.subway" priority="18" numLanes="1" speed="27.78" allow="rail_urban" oneway="1"/>
    <type id="railway.tram" priority="17" numLanes="1" speed="13.89" allow="tram" oneway="1"/>

    <edge id=":10007965312_0" function="internal">
        <lane id=":10007965312_0_0" index="0" disallow="tram rail_urban rail rail_electric rail_fast ship" speed="27.78" length="9.76" shape="686.76,472.65 679.25,466.41"/>
        <lane id=":10007965312_0_1" index="1" disallow="tram rail_urban rail rail_electric rail_fast ship" speed="27.78" length="9.76" shape="688.80,470.19 681.29,463.95"/>
    </edge>
    <edge id=":10007965312_2" function="internal">
        <lane id=":10007965312_2_0" index="0" disallow="tram rail_urban rail rail_electric rail_fast ship" speed="7.25" length="8.59" shape="688.80,470.19 686.86,468.29 685.66,466.43 685.21,464.62 685.50,462.85"/>
    </edge>
    <edge id=":10007965312_3" function="internal">
        <lane id=":10007965312_3_0" index="0" disallow="tram rail_urban rail rail_electric rail_fast ship" speed="5.83" length="8.81" shape="688.49,464.00 687.39,465.68 685.83,466.24 683.80,465.66 681.29,463.95"/>
    </edge>
    <edge id=":10007965312_4" function="internal">
        <lane id=":10007965312_4_0" index="0" disallow="tram rail_urban rail rail_electric rail_fast ship" speed="3.65" length="4.67" shape="688.49,464.00 687.31,464.83 686.42,464.92 685.82,464.26 685.50,462.85"/>
    </edge>
    <edge id=":10007965313_0" function="internal">
        <lane id=":10007965313_0_0" index="0" disallow="tram rail_urban rail rail_electric rail_fast ship" speed="3.65" length="4.67" shape="710.39,397.83 711.57,396.99 712.46,396.91 713.06,397.57 713.38,398.97"/>
    </edge>
    <edge id=":10174933744_0" function="internal">
        <lane id=":10174933744_0_0" index="0" disallow="tram rail_urban rail rail_electric rail_fast ship" speed="3.65" length="4.67" shape="281.98,292.23 283.40,291.98 284.25,292.29 284.51,293.14 284.19,294.55"/>
    </edge>
    <edge id=":10174933745_0" function="internal">
        <lane id=":10174933745_0_0" index="0" disallow="tram rail_urban rail rail_electric rail_fast ship" speed="27.78" length="9.96" shape="423.34,270.55 431.23,276.63"/>
    </edge>
    <edge id=":10174933745_1" function="internal">
        <lane id=":10174933745_1_0" index="0" disallow="tram rail_urban rail rail_electric rail_fast ship" speed="5.80" length="9.12" shape="423.34,270.55 425.62,272.68 426.58,274.58 426.24,276.24 424.59,277.65"/>
    </edge>
    <edge id=":10174933745_2" function="internal">
        <lane id=":10174933745_2_0" index="0" disallow="tram rail_urban rail rail_electric rail_fast ship" speed="7.64" length="8.89" shape="423.02,274.86 424.82,274.25 426.79,274.34 428.92,275.13 431.23,276.63"/>
    </edge>
    <edge id=":10174933745_3" function="internal">
        <lane id=":10174933745_3_0" index="0" disallow="tram rail_urban rail rail_electric rail_fast ship" speed="3.65" length="4.67" shape="423.02,274.86 424.46,274.97 425.20,275.47 425.24,276.37 424.59,277.65"/>
    </edge>
    <edge id=":10174933750_0" function="internal">
        <lane id=":10174933750_0_0" index="0" disallow="tram rail_urban rail rail_electric rail_fast ship" speed="3.65" length="4.67" shape="437.37,360.07 437.45,358.63 437.93,357.88 438.82,357.81 440.12,358.44"/>
    </edge>
    <edge id=":10196573668_0" function="internal">
        <lane id=":10196573668_0_0" index="0" disallow="tram rail_urban rail rail_electric rail_fast ship" speed="9.90" length="12.72" shape="802.41,338.22 800.79,336.35 798.35,334.96 795.11,334.06 791.06,333.64"/>
    </edge>
    <edge id=":10196573668_1" function="internal">
        <lane id=":10196573668_1_0" index="0" disallow="tram rail_urban rail rail_electric rail_fast ship" speed="22.22" length="15.56" shape="802.41,338.22 794.64,324.74"/>
    </edge>
    <edge id=":10196573668_2" function="internal">
        <lane id=":10196573668_2_0" index="0" disallow="tram rail_urban rail rail_electric rail_fast ship" speed="3.65" length="1.44" shape="802.41,338.22 802.50,336.78"/>
    </edge>
    <edge id=":10196573668_9" function="internal">
        <lane id=":10196573668_9_0" index="0" disallow="tram rail_urban rail rail_electric rail_fast ship" speed="3.65" length="3.23" shape="802.50,336.78 803.00,336.04 803.89,335.98 805.18,336.62"/>
    </edge>
    <edge id=":10196573668_3" function="internal">
        <lane id=":10196573668_3_0" index="0" disallow="tram rail_urban rail rail_electric rail_fast ship" speed="22.22" length="15.56" shape="797.41,323.14 805.18,336.62"/>
    </edge>
    <edge id=":10196573668_4" function="internal">
        <lane id=":10196573668_4_0" index="0" disallow="tram rail_urban rail rail_electric rail_fast ship" speed="7.39" length="5.05" shape="797.41,323.14 799.34,327.80"/>
    </edge>
    <edge id=":10196573668_5" function="internal">
        <lane id=":10196573668_5_0" index="0" disallow="tram rail_urban rail rail_electric rail_fast ship" speed="3.65" length="1.44" shape="797.41,323.14 797.32,324.58"/>
    </edge>
    <edge id=":10196573668_10" function="internal">
        <lane id=":10196573668_10_0" index="0" disallow="tram rail_urban rail rail_electric rail_fast ship" speed="7.39" length="12.04" shape="799.34,327.80 799.39,327.92 798.99,331.26 796.22,333.17 791.06,333.64"/>
    </edge>
    <edge id=":10196573668_11" function="internal">
        <lane id=":10196573668_11_0" index="0" disallow="tram rail_urban rail rail_electric rail_fast ship" speed="3.65" length="3.23" shape="797.32,324.58 796.82,325.32 795.93,325.38 794.64,324.74"/>
    </edge>
    <edge id=":10196573668_6" function="internal">
        <lane id=":10196573668_6_0" index="0" disallow="tram rail_urban rail rail_electric rail_fast ship" speed="5.63" length="9.28" shape="791.19,330.44 793.99,330.19 795.50,329.15 795.71,327.33 794.64,324.74"/>
    </edge>
    <edge id=":10196573668_7" function="internal">
        <lane id=":10196573668_7_0" index="0" disallow="tram rail_urban rail rail_electric rail_fast ship" speed="11.04" length="15.93" shape="791.19,330.44 796.07,330.99 800.02,332.20 803.06,334.08 805.18,336.62"/>
    </edge>
    <edge id=":10196573668_8" function="internal">
        <lane id=":10196573668_8_0" index="0" disallow="tram rail_urban rail rail_electric rail_fast ship" speed="3.65" length="4.67" shape="791.19,330.44 792.36,331.29 792.72,332.10 792.29,332.89 791.06,333.64"/>
    </edge>
    <edge id=":10196573669_0" function="internal">
        <lane id=":10196573669_0_0" index="0" disallow="tram rail_urban rail rail_electric rail_fast ship" speed="6.54" length="8.06" shape="778.48,333.14 776.32,333.35 774.65,334.18 773.46,335.61 772.76,337.66"/>
    </edge>
    <edge id=":10196573669_1" function="internal">
        <lane id=":10196573669_1_0" index="0" disallow="tram rail_urban rail rail_electric rail_fast ship" speed="11.63" length="12.04" shape="778.48,333.14 775.17,332.88 772.51,332.22 770.14,330.91 767.70,328.73"/>
    </edge>
    <edge id=":10196573669_2" function="internal">
        <lane id=":10196573669_2_0" index="0" disallow="tram rail_urban rail rail_electric rail_fast ship" speed="3.65" length="1.44" shape="778.48,333.14 777.31,332.29"/>
    </edge>
    <edge id=":10196573669_9" function="internal">
        <lane id=":10196573669_9_0" index="0" disallow="tram rail_urban rail rail_electric rail_fast ship" speed="3.65" length="3.23" shape="777.31,332.29 776.94,331.48 777.37,330.70 778.61,329.94"/>
    </edge>
    <edge id=":10196573669_3" function="internal">
        <lane id=":10196573669_3_0" index="0" disallow="tram rail_urban rail rail_electric rail_fast ship" speed="10.46" length="9.66" shape="770.01,326.52 772.05,328.44 773.77,329.41 775.76,329.80 778.61,329.94"/>
    </edge>
    <edge id=":10196573669_4" function="internal">
        <lane id=":10196573669_4_0" index="0" disallow="tram rail_urban rail rail_electric rail_fast ship" speed="9.95" length="3.09" shape="770.01,326.52 771.72,328.82 771.80,329.03"/>
    </edge>
    <edge id=":10196573669_5" function="internal">
        <lane id=":10196573669_5_0" index="0" disallow="tram rail_urban rail rail_electric rail_fast ship" speed="3.65" length="1.44" shape="770.01,326.52 770.26,327.94"/>
    </edge>
    <edge id=":10196573669_10" function="internal">
        <lane id=":10196573669_10_0" index="0" disallow="tram rail_urban rail rail_electric rail_fast ship" speed="9.95" length="8.85" shape="771.80,329.03 772.74,331.44 773.09,334.39 772.76,337.66"/>
    </edge>
    <edge id=":10196573669_11" function="internal">
        <lane id=":10196573669_11_0" index="0" disallow="tram rail_urban rail rail_electric rail_fast ship" speed="3.65" length="3.23" shape="770.26,327.94 769.96,328.78 769.11,329.04 767.70,328.73"/>
    </edge>
    <edge id=":10196573669_6" function="internal">
        <lane id=":10196573669_6_0" index="0" disallow="tram rail_urban rail rail_electric rail_fast ship" speed="8.65" length="8.88" shape="769.62,337.05 769.88,334.56 769.65,332.35 768.92,330.40 767.70,328.73"/>
    </edge>
    <edge id=":10196573669_7" function="internal">
        <lane id=":10196573669_7_0" index="0" disallow="tram rail_urban rail rail_electric rail_fast ship" speed="8.04" length="12.67" shape="769.62,337.05 770.72,333.83 772.59,331.57 775.22,330.28 778.61,329.94"/>
    </edge>
    <edge id=":10196573669_8" function="internal">
        <lane id=":10196573669_8_0" index="0" disallow="tram rail_urban rail rail_electric rail_fast ship" speed="3.65" length="4.67" shape="769.62,337.05 770.64,336.03 771.50,335.79 772.21,336.33 772.76,337.66"/>
    </edge>
    <edge id=":10196573672_0" function="internal">
        <lane id=":10196573672_0_0" index="0" disallow="tram rail_urban rail rail_electric rail_fast ship" speed="6.07" length="8.05" shape="689.71,382.89 687.58,382.29 686.18,381.15 685.53,379.47 685.63,377.25"/>
    </edge>
    <edge id=":10196573672_1" function="internal">
        <lane id=":10196573672_1_0" index="0" disallow="tram rail_urban rail rail_electric rail_fast ship" speed="3.90" length="2.68" shape="688.77,377.84 688.74,378.58 688.96,379.14 689.42,379.52 690.14,379.72"/>
    </edge>
    <edge id=":10690621668_0" function="internal">
        <lane id=":10690621668_0_0" index="0" disallow="tram rail_urban rail rail_electric rail_fast ship" speed="13.09" length="20.72" shape="880.72,696.33 879.39,692.30 876.68,688.52 872.58,684.97 867.09,681.67"/>
    </edge>
    <edge id=":10690621668_1" function="internal">
        <lane id=":10690621668_1_0" index="0" disallow="tram rail_urban rail rail_electric rail_fast ship" speed="25.97" length="23.65" shape="880.72,696.33 879.40,690.10 877.55,685.42 874.91,681.05 871.26,675.75"/>
        <lane id=":10690621668_1_1" index="1" disallow="tram rail_urban rail rail_electric rail_fast ship" speed="26.76" length="23.65" shape="883.88,695.85 882.48,689.41 880.45,684.28 877.64,679.45 873.90,673.94"/>
    </edge>
    <edge id=":10690621668_3" function="internal">
        <lane id=":10690621668_3_0" index="0" disallow="tram rail_urban rail rail_electric rail_fast ship" speed="27.78" length="23.92" shape="887.74,693.37 882.23,689.87 877.61,687.18 872.89,684.66 867.09,681.67"/>
        <lane id=":10690621668_3_1" index="1" disallow="tram rail_urban rail rail_electric rail_fast ship" speed="27.78" length="23.92" shape="889.49,690.69 883.94,687.17 879.22,684.42 874.40,681.84 868.55,678.82"/>
    </edge>
    <edge id=":10690621668_5" function="internal">
        <lane id=":10690621668_5_0" index="0" disallow="tram rail_urban rail rail_electric rail_fast ship" speed="27.78" length="23.10" shape="889.49,690.69 884.32,686.92 880.68,683.35 877.55,679.26 873.90,673.94"/>
    </edge>
    <edge id=":1314011511_0" function="internal">
        <lane id=":1314011511_0_0" index="0" disallow="tram rail_urban rail rail_electric rail_fast ship" speed="3.65" length="4.67" shape="458.98,760.99 458.08,762.12 457.25,762.45 456.49,761.98 455.79,760.71"/>
    </edge>
    <edge id=":1314011512_0" function="internal">
        <lane id=":1314011512_0_0" index="0" disallow="tram rail_urban rail rail_electric rail_fast ship" speed="27.78" length="10.11" shape="480.04,473.70 482.95,474.66 484.91,475.40 486.82,476.27 489.59,477.58"/>
        <lane id=":1314011512_0_1" index="1" disallow="tram rail_urban rail rail_electric rail_fast ship" speed="27.78" length="10.11" shape="479.08,476.75 481.86,477.67 483.74,478.39 485.58,479.22 488.23,480.47"/>
    </edge>
    <edge id=":1314011512_2" function="internal">
        <lane id=":1314011512_2_0" index="0" disallow="tram rail_urban rail rail_electric rail_fast ship" speed="6.90" length="8.65" shape="479.08,476.75 481.58,477.81 483.31,479.14 484.27,480.74 484.45,482.62"/>
    </edge>
    <edge id=":1314011512_3" function="internal">
        <lane id=":1314011512_3_0" index="0" disallow="tram rail_urban rail rail_electric rail_fast ship" speed="5.83" length="8.85" shape="481.27,482.29 481.89,480.36 483.26,479.41 485.37,479.45 488.23,480.47"/>
    </edge>
    <edge id=":1314011512_4" function="internal">
        <lane id=":1314011512_4_0" index="0" disallow="tram rail_urban rail rail_electric rail_fast ship" speed="3.65" length="4.67" shape="481.27,482.29 482.18,481.18 483.02,480.86 483.78,481.34 484.45,482.62"/>
    </edge>
    <edge id=":1482515123_0" function="internal">
        <lane id=":1482515123_0_0" index="0" disallow="tram rail_urban rail rail_electric rail_fast ship" speed="3.65" length="4.67" shape="1610.83,536.44 1612.05,537.21 1612.47,538.00 1612.09,538.81 1610.91,539.64"/>
    </edge>
    <edge id=":2018206349_0" function="internal">
        <lane id=":2018206349_0_0" index="0" disallow="tram rail_urban rail rail_electric rail_fast ship" speed="13.05" length="12.94" shape="1023.23,472.94 1020.80,475.44 1018.82,477.82 1017.42,480.46 1016.71,483.75"/>
    </edge>
    <edge id=":2018206349_1" function="internal">
        <lane id=":2018206349_1_0" index="0" disallow="tram rail_urban rail rail_electric rail_fast ship" speed="7.42" length="16.57" shape="1023.23,472.94 1019.33,475.97 1016.03,476.51 1013.33,474.53 1011.23,470.06"/>
    </edge>
    <edge id=":2018206349_2" function="internal">
        <lane id=":2018206349_2_0" index="0" disallow="tram rail_urban rail rail_electric rail_fast ship" speed="3.65" length="4.67" shape="1023.23,472.94 1021.82,473.24 1020.97,472.96 1020.68,472.12 1020.95,470.70"/>
    </edge>
    <edge id=":2018206349_3" function="internal">
        <lane id=":2018206349_3_0" index="0" disallow="tram rail_urban rail rail_electric rail_fast ship" speed="5.70" length="9.21" shape="1014.28,469.10 1015.45,471.59 1016.95,472.68 1018.78,472.39 1020.95,470.70"/>
    </edge>
    <edge id=":2018206349_4" function="internal">
        <lane id=":2018206349_4_0" index="0" disallow="tram rail_urban rail rail_electric rail_fast ship" speed="22.22" length="14.95" shape="1014.28,469.10 1015.35,472.70 1016.22,476.35 1016.72,480.03 1016.71,483.75"/>
    </edge>
    <edge id=":2018206349_5" function="internal">
        <lane id=":2018206349_5_0" index="0" disallow="tram rail_urban rail rail_electric rail_fast ship" speed="3.65" length="1.44" shape="1014.28,469.10 1013.88,470.49"/>
    </edge>
    <edge id=":2018206349_9" function="internal">
        <lane id=":2018206349_9_0" index="0" disallow="tram rail_urban rail rail_electric rail_fast ship" speed="3.65" length="3.23" shape="1013.88,470.49 1013.23,471.11 1012.35,470.97 1011.23,470.06"/>
    </edge>
    <edge id=":2018206349_6" function="internal">
        <lane id=":2018206349_6_0" index="0" disallow="tram rail_urban rail rail_electric rail_fast ship" speed="22.22" length="13.72" shape="1013.52,483.48 1013.55,479.96 1013.10,476.69 1012.28,473.47 1011.23,470.06"/>
    </edge>
    <edge id=":2018206349_7" function="internal">
        <lane id=":2018206349_7_0" index="0" disallow="tram rail_urban rail rail_electric rail_fast ship" speed="14.05" length="3.14" shape="1013.52,483.48 1014.24,480.42"/>
    </edge>
    <edge id=":2018206349_8" function="internal">
        <lane id=":2018206349_8_0" index="0" disallow="tram rail_urban rail rail_electric rail_fast ship" speed="3.65" length="1.44" shape="1013.52,483.48 1014.42,482.36"/>
    </edge>
    <edge id=":2018206349_10" function="internal">
        <lane id=":2018206349_10_0" index="0" disallow="tram rail_urban rail rail_electric rail_fast ship" speed="14.05" length="11.92" shape="1014.24,480.42 1014.37,479.89 1016.08,476.56 1018.37,473.50 1020.95,470.70"/>
    </edge>
    <edge id=":2018206349_11" function="internal">
        <lane id=":2018206349_11_0" index="0" disallow="tram rail_urban rail rail_electric rail_fast ship" speed="3.65" length="3.23" shape="1014.42,482.36 1015.25,482.02 1016.02,482.49 1016.71,483.75"/>
    </edge>
    <edge id=":2018207698_0" function="internal">
        <lane id=":2018207698_0_0" index="0" disallow="tram rail_urban rail rail_electric rail_fast ship" speed="9.82" length="13.49" shape="1005.10,450.58 1003.59,446.94 1001.62,444.16 999.20,442.25 996.32,441.19"/>
    </edge>
    <edge id=":2018207698_1" function="internal">
        <lane id=":2018207698_1_0" index="0" disallow="tram rail_urban rail rail_electric rail_fast ship" speed="18.05" length="17.17" shape="1005.10,450.58 1004.08,446.61 1003.39,442.15 1003.13,437.67 1003.45,433.61"/>
    </edge>
    <edge id=":2018207698_2" function="internal">
        <lane id=":2018207698_2_0" index="0" disallow="tram rail_urban rail rail_electric rail_fast ship" speed="7.41" length="16.73" shape="1005.10,450.58 1004.24,445.64 1005.33,442.47 1008.38,441.08 1013.38,441.46"/>
    </edge>
    <edge id=":2018207698_3" function="internal">
        <lane id=":2018207698_3_0" index="0" disallow="tram rail_urban rail rail_electric rail_fast ship" speed="3.65" length="4.67" shape="1005.10,450.58 1005.50,449.19 1006.14,448.57 1007.03,448.71 1008.15,449.62"/>
    </edge>
    <edge id=":2018207698_4" function="internal">
        <lane id=":2018207698_4_0" index="0" disallow="tram rail_urban rail rail_electric rail_fast ship" speed="5.68" length="9.23" shape="1012.72,444.59 1009.96,444.38 1008.28,445.15 1007.68,446.89 1008.15,449.62"/>
    </edge>
    <edge id=":2018207698_5" function="internal">
        <lane id=":2018207698_5_0" index="0" disallow="tram rail_urban rail rail_electric rail_fast ship" speed="22.22" length="16.75" shape="1012.72,444.59 996.32,441.19"/>
    </edge>
    <edge id=":2018207698_6" function="internal">
        <lane id=":2018207698_6_0" index="0" disallow="tram rail_urban rail rail_electric rail_fast ship" speed="8.63" length="5.07" shape="1012.72,444.59 1008.10,443.04 1007.94,442.92"/>
    </edge>
    <edge id=":2018207698_7" function="internal">
        <lane id=":2018207698_7_0" index="0" disallow="tram rail_urban rail rail_electric rail_fast ship" speed="3.65" length="1.44" shape="1012.72,444.59 1011.71,443.56"/>
    </edge>
    <edge id=":2018207698_16" function="internal">
        <lane id=":2018207698_16_0" index="0" disallow="tram rail_urban rail rail_electric rail_fast ship" speed="8.63" length="11.13" shape="1007.94,442.92 1005.01,440.70 1003.46,437.55 1003.45,433.61"/>
    </edge>
    <edge id=":2018207698_17" function="internal">
        <lane id=":2018207698_17_0" index="0" disallow="tram rail_urban rail rail_electric rail_fast ship" speed="3.65" length="3.23" shape="1011.71,443.56 1011.49,442.69 1012.04,441.99 1013.38,441.46"/>
    </edge>
    <edge id=":2018207698_8" function="internal">
        <lane id=":2018207698_8_0" index="0" disallow="tram rail_urban rail rail_electric rail_fast ship" speed="7.27" length="11.20" shape="1006.60,434.15 1006.66,436.73 1007.80,438.81 1010.05,440.38 1013.38,441.46"/>
    </edge>
    <edge id=":2018207698_9" function="internal">
        <lane id=":2018207698_9_0" index="0" disallow="tram rail_urban rail rail_electric rail_fast ship" speed="18.05" length="15.67" shape="1006.60,434.15 1006.27,437.98 1006.49,441.95 1007.15,445.88 1008.15,449.62"/>
    </edge>
    <edge id=":2018207698_10" function="internal">
        <lane id=":2018207698_10_0" index="0" disallow="tram rail_urban rail rail_electric rail_fast ship" speed="7.96" length="14.29" shape="1006.60,434.15 1005.38,437.89 1003.27,440.31 1000.25,441.41 996.32,441.19"/>
    </edge>
    <edge id=":2018207698_11" function="internal">
        <lane id=":2018207698_11_0" index="0" disallow="tram rail_urban rail rail_electric rail_fast ship" speed="3.65" length="4.67" shape="1006.60,434.15 1005.61,435.20 1004.75,435.46 1004.03,434.93 1003.45,433.61"/>
    </edge>
    <edge id=":2018207698_12" function="internal">
        <lane id=":2018207698_12_0" index="0" disallow="tram rail_urban rail rail_electric rail_fast ship" speed="6.45" length="9.03" shape="996.95,438.06 999.43,438.19 1001.34,437.50 1002.68,435.97 1003.45,433.61"/>
    </edge>
    <edge id=":2018207698_13" function="internal">
        <lane id=":2018207698_13_0" index="0" disallow="tram rail_urban rail rail_electric rail_fast ship" speed="22.22" length="16.78" shape="996.95,438.06 1013.38,441.46"/>
    </edge>
    <edge id=":2018207698_14" function="internal">
        <lane id=":2018207698_14_0" index="0" disallow="tram rail_urban rail rail_electric rail_fast ship" speed="10.85" length="4.23" shape="996.95,438.06 1000.18,439.51 1000.71,439.95"/>
    </edge>
    <edge id=":2018207698_15" function="internal">
        <lane id=":2018207698_15_0" index="0" disallow="tram rail_urban rail rail_electric rail_fast ship" speed="3.65" length="1.44" shape="996.95,438.06 997.97,439.08"/>
    </edge>
    <edge id=":2018207698_18" function="internal">
        <lane id=":2018207698_18_0" index="0" disallow="tram rail_urban rail rail_electric rail_fast ship" speed="10.85" length="12.37" shape="1000.71,439.95 1003.48,442.28 1006.31,445.83 1008.15,449.62"/>
    </edge>
    <edge id=":2018207698_19" function="internal">
        <lane id=":2018207698_19_0" index="0" disallow="tram rail_urban rail rail_electric rail_fast ship" speed="3.65" length="3.23" shape="997.97,439.08 998.20,439.94 997.65,440.65 996.32,441.19"/>
    </edge>
    <edge id=":2166371113_0" function="internal">
        <lane id=":2166371113_0_0" index="0" disallow="tram rail_urban rail rail_electric rail_fast ship" speed="13.89" length="0.30" shape="937.69,477.01 937.66,477.31"/>
    </edge>
    <edge id=":2166371113_1" function="internal">
        <lane id=":2166371113_1_0" index="0" disallow="tram rail_urban rail rail_electric rail_fast ship" speed="13.89" length="0.30" shape="934.48,476.99 934.51,476.69"/>
    </edge>
    <edge id=":2166371114_0" function="internal">
        <lane id=":2166371114_0_0" index="0" disallow="tram rail_urban rail rail_electric rail_fast ship" speed="5.84" length="7.12" shape="1231.81,487.85 1230.43,487.94 1229.29,488.79 1228.40,490.40 1227.76,492.78"/>
    </edge>
    <edge id=":2166371114_1" function="internal">
        <lane id=":2166371114_1_0" index="0" disallow="tram rail_urban rail rail_electric rail_fast ship" speed="22.22" length="11.87" shape="1231.81,487.85 1220.17,485.58"/>
    </edge>
    <edge id=":2166371114_2" function="internal">
        <lane id=":2166371114_2_0" index="0" disallow="tram rail_urban rail rail_electric rail_fast ship" speed="3.65" length="1.44" shape="1231.81,487.85 1230.79,486.84"/>
    </edge>
    <edge id=":2166371114_9" function="internal">
        <lane id=":2166371114_9_0" index="0" disallow="tram rail_urban rail rail_electric rail_fast ship" speed="3.65" length="3.23" shape="1230.79,486.84 1230.55,485.97 1231.10,485.26 1232.43,484.71"/>
    </edge>
    <edge id=":2166371114_3" function="internal">
        <lane id=":2166371114_3_0" index="0" disallow="tram rail_urban rail rail_electric rail_fast ship" speed="22.22" length="11.87" shape="1220.78,482.44 1232.43,484.71"/>
    </edge>
    <edge id=":2166371114_4" function="internal">
        <lane id=":2166371114_4_0" index="0" disallow="tram rail_urban rail rail_electric rail_fast ship" speed="8.03" length="4.05" shape="1220.78,482.44 1224.44,483.71 1224.57,483.83"/>
    </edge>
    <edge id=":2166371114_5" function="internal">
        <lane id=":2166371114_5_0" index="0" disallow="tram rail_urban rail rail_electric rail_fast ship" speed="3.65" length="1.44" shape="1220.78,482.44 1221.80,483.45"/>
    </edge>
    <edge id=":2166371114_10" function="internal">
        <lane id=":2166371114_10_0" index="0" disallow="tram rail_urban rail rail_electric rail_fast ship" speed="8.03" length="10.15" shape="1224.57,483.83 1226.82,485.86 1227.93,488.88 1227.76,492.78"/>
    </edge>
    <edge id=":2166371114_11" function="internal">
        <lane id=":2166371114_11_0" index="0" disallow="tram rail_urban rail rail_electric rail_fast ship" speed="3.65" length="3.23" shape="1221.80,483.45 1222.04,484.31 1221.50,485.02 1220.17,485.58"/>
    </edge>