<?xml version="1.0" encoding="UTF-8"?>

<!-- generated on 2023-04-24 21:22:31.449310 by randomTrips.py v1_16_0+2119-c93da6fc232
<configuration>
    <net-file value="place.net.xml"/>
    <route-file value="place.rou.xml"/>
    <end value="50.0"/>
    <length value="True"/>
</configuration>
-->

<routes xmlns:xsi="http://www.w3.org/2001/XMLSchema-instance" xsi:noNamespaceSchemaLocation="http://sumo.dlr.de/xsd/routes_file.xsd">
    <trip id="0" depart="0.00" from="26793391#0" to="-191229315#0"/>
    <trip id="1" depart="1.00" from="1114841114#2" to="-26793391#0"/>
    <trip id="2" depart="2.00" from="42917728#1" to="405629516#0"/>
    <trip id="3" depart="3.00" from="66292238#1" to="-206609427"/>
    <trip id="4" depart="4.00" from="243944959#1" to="-191229315#0"/>
    <trip id="5" depart="5.00" from="-592906254#1" to="243944959#9"/>
    <trip id="6" depart="6.00" from="-1112179728" to="-25967624#5"/>
    <trip id="7" depart="7.00" from="26793391#0" to="243944959#9"/>
    <trip id="8" depart="8.00" from="-592906254#1" to="25967624#2"/>
    <trip id="9" depart="9.00" from="66102248#3" to="-1114841114#1"/>
    <trip id="10" depart="10.00" from="66102248#2" to="42917728#1"/>
    <trip id="11" depart="11.00" from="206609427" to="-25967624#0"/>
    <trip id="12" depart="12.00" from="66292238#6" to="1114841114#1"/>
    <trip id="13" depart="13.00" from="-191229466#1" to="-22933593"/>
    <trip id="14" depart="14.00" from="66292238#1" to="25967624#4"/>
    <trip id="15" depart="15.00" from="66102248#2" to="592906254#1"/>
    <trip id="16" depart="16.00" from="243944959#9" to="66292238#7"/>
    <trip id="17" depart="17.00" from="22933593" to="243944959#9"/>
    <trip id="18" depart="18.00" from="66292238#1" to="25967624#7"/>
    <trip id="19" depart="19.00" from="66292238#1" to="243944959#9"/>
    <trip id="20" depart="20.00" from="405629516#1" to="-191229466#0"/>
    <trip id="21" depart="21.00" from="-592906255" to="-855508767"/>
    <trip id="22" depart="22.00" from="-191229466#0" to="-26793391#3"/>
    <trip id="23" depart="23.00" from="-206609410" to="-598051490"/>
    <trip id="24" depart="24.00" from="26793391#0" to="191229315#1"/>
    <trip id="25" depart="25.00" from="22933593" to="-26793391#0"/>
    <trip id="26" depart="26.00" from="1114841114#1" to="66292238#6"/>
    <trip id="27" depart="27.00" from="26793391#0" to="25967624#5"/>
    <trip id="28" depart="28.00" from="-26793391#3" to="592906254#1"/>
    <trip id="29" depart="29.00" from="-25967624#7" to="191229466#0"/>
    <trip id="30" depart="30.00" from="855508767" to="26793392#0"/>
    <trip id="31" depart="31.00" from="243944959#9" to="405629516#1"/>
    <trip id="32" depart="32.00" from="66292238#1" to="66102248#0"/>
    <trip id="33" depart="33.00" from="-592906255" to="-191229315#1"/>
    <trip id="34" depart="34.00" from="191229466#1" to="-598051490"/>
    <trip id="35" depart="35.00" from="-592906254#1" to="66292238#6"/>
    <trip id="36" depart="36.00" from="66292238#1" to="1092779564"/>
    <trip id="37" depart="37.00" from="26793391#1" to="191229466#1"/>
    <trip id="38" depart="38.00" from="66292238#1" to="243944959#5"/>
    <trip id="39" depart="39.00" from="1114841114#1" to="-26793392#0"/>
    <trip id="40" depart="40.00" from="243944959#9" to="-598051490"/>
    <trip id="41" depart="41.00" from="25967624#0" to="66292238#1"/>
    <trip id="42" depart="42.00" from="22933593" to="-26793391#0"/>
    <trip id="43" depart="43.00" from="993571712" to="243944959#9"/>
    <trip id="44" depart="44.00" from="-191229466#1" to="-191229466#0"/>
    <trip id="45" depart="45.00" from="-206609410" to="26793391#3"/>
    <trip id="46" depart="46.00" from="66102248#2" to="206775516"/>
    <trip id="47" depart="47.00" from="-191229315#1" to="191229466#0"/>
    <trip id="48" depart="48.00" from="993571712" to="243944959#9"/>
    <trip id="49" depart="49.00" from="66292238#6" to="66292238#1"/>
</routes>
